    1
    2    0
   15
    1    0    3    1  290 # 1sd
    2    0    3    1  290 # 2sd
    1    1    2    1  290 # 2pp
    1    2    3    1  190 # 2pf
    3    0    3    1  160 # 3sd
    2    1    2    2  160 # 3pp
    2    2    3    1  160 # 3pf
    1    3    0    4  160 # 3ds
    1    3    2    1  160 # 3dd
    1    1    4    1  160 # 3dg
    4    0    3    2  160 # 4sd
    3    1    2    3  160 # 4pp
    3    1    2    1  160 # 4pf
    2    3    0    5  160 # 4ds
    2    2    2    2  160 # 4dd

    2    2    4    1  160 # 4dg
    1    3    1    4  160 # 4fp
    1    3    3    1  160 # 4ff
#########################
